# Maintainer: Balló György <ballogyor+arch at gmail dot com>
# Contributor: Dave Reisner <dreisner@archlinux.org>
# Contributor: Alexander Rødseth <rodseth@gmail.com>
# Contributor: Thomas Jost <schnouki@schnouki.net>
# Contributor: JaDa <jada@archlinux.us>
# Contributor: Joaquim Pedro <osmano807@gmail.com>
# Contributor: Jan Rüegg <rggjan@gmail.com>

pkgname=gperftools-dynamic-tls
pkgver=2.17
pkgrel=1
pkgdesc='Fast, multi-threaded malloc and nifty performance analysis tools'
arch=(aarch64 x86_64)
url='https://github.com/gperftools/gperftools'
license=(BSD-3-Clause)
depends=(
  gcc-libs
  glibc
  libunwind
)
makedepends=(
  asciidoctor
  git
)
source=("git+https://github.com/gperftools/gperftools.git#tag=gperftools-$pkgver")
b2sums=(b0cd59121adb2b1c3d6a298759fad19ce78c610dfe0a4353e03f2d817fc97d9df2fac0ef9de1c04deedb4305a2ebc37f2b1ae4174183cd600f06216b69d40422)

_prepare() {
  cd gperftools
  autoreconf -fi
}

prepare() {
  (cd gperftools
  find -type f -exec sed -i -e 's/ABSL_ATTRIBUTE_INITIAL_EXEC//g' {} \;
  find -type f -exec sed -i -e 's/__attribute__ *( *( *tls_model *( *"initial-exec" *) *) *)//g' {} \;)
  _prepare
}

build() {
  cd gperftools
  ./configure \
    --prefix=/usr \
    --sysconfdir=/etc \
    --localstatedir=/var \
    --enable-frame-pointers \
    --enable-libunwind
  sed -i -e 's/ -shared / -Wl,-O1,--as-needed\0/g' libtool
  make
}

_check() {
  cd gperftools
  make check
}

package() {
  provides+=(gperftools=$pkgver)
  conflicts+=(gperftools=$pkgver)
  cd gperftools
  make DESTDIR="$pkgdir" install
  install -Dm644 -t "$pkgdir/usr/share/licenses/gperftools/" COPYING
}
